
#======================================================================
# CRYSTAL DATA
#----------------------------------------------------------------------
data_VESTA_phase_1

_chemical_name_common                  'Aluminium oxide - gamma'
_cell_length_a                         3.6920(7)
_cell_length_b                         2.8680(4)
_cell_length_c                         7.5340(9)
_cell_angle_alpha                      90.000000
_cell_angle_beta                       90.000000
_cell_angle_gamma                      90.000000
_cell_volume                           79.774932
_space_group_name_H-M_alt              'P m m a'
_space_group_IT_number                 51

loop_
_space_group_symop_operation_xyz
   'x, y, z'
   '-x, -y, -z'
   '-x+1/2, -y, z'
   'x+1/2, y, -z'
   '-x, y, -z'
   'x, -y, z'
   'x+1/2, -y, -z'
   '-x+1/2, y, z'

loop_
   _atom_site_label
   _atom_site_occupancy
   _atom_site_fract_x
   _atom_site_fract_y
   _atom_site_fract_z
   _atom_site_adp_type
   _atom_site_U_iso_or_equiv
   _atom_site_type_symbol
   O1         1.0     0.250000     0.000000     0.250000    Uiso  0.050000 O
   O2         1.0     0.250000     0.500000     0.000000    Uiso  0.050000 O
   O3         1.0     0.250000     0.500000     0.380000    Uiso  0.050000 O
   Al1        0.3330  0.000000     0.000000     0.500000    Uiso  0.050000 Al
   Al2        0.3330  0.250000     0.000000     0.750000    Uiso  0.050000 Al
   Al3        0.3330  0.250000     0.000000     0.000000    Uiso  0.050000 Al
   Al4        0.3330  0.250000     0.500000     0.100000    Uiso  0.050000 Al
   Al5        0.3330  0.500000     0.500000     0.250000    Uiso  0.050000 Al
